Version 4
SHEET 1 2300 1120
WIRE 624 -32 624 -48
WIRE 624 -32 608 -32
WIRE 624 -16 624 -32
WIRE 1328 176 1248 176
WIRE 1504 176 1408 176
WIRE 1360 224 960 224
WIRE 176 240 176 224
WIRE 176 240 128 240
WIRE 224 240 176 240
WIRE 1504 240 1504 176
WIRE 1504 240 1392 240
WIRE 128 256 128 240
WIRE 224 256 224 240
WIRE 1392 320 1392 240
WIRE 1408 320 1392 320
WIRE -192 336 -192 304
WIRE 128 336 128 320
WIRE 128 336 112 336
WIRE 224 336 224 320
WIRE 240 336 224 336
WIRE 960 336 960 224
WIRE 1008 336 960 336
WIRE 1504 336 1504 240
WIRE 1504 336 1472 336
WIRE 1536 336 1504 336
WIRE 128 352 128 336
WIRE 224 352 224 336
WIRE 1168 352 1072 352
WIRE 1248 352 1248 176
WIRE 1248 352 1232 352
WIRE 1264 352 1248 352
WIRE 1360 352 1360 224
WIRE 1360 352 1328 352
WIRE 1408 352 1360 352
WIRE 1008 368 928 368
WIRE 1360 384 1360 352
WIRE 128 432 128 416
WIRE 176 432 128 432
WIRE 224 432 224 416
WIRE 224 432 176 432
WIRE -192 448 -192 416
WIRE 176 448 176 432
WIRE 1360 480 1360 448
WIRE 320 848 304 848
WIRE 400 848 320 848
WIRE 720 864 720 832
WIRE 960 864 816 864
WIRE 400 880 384 880
WIRE 608 928 576 928
WIRE 816 928 816 864
WIRE 848 928 816 928
WIRE 960 944 960 864
WIRE 960 944 912 944
WIRE 992 944 960 944
WIRE 720 960 720 944
WIRE 848 960 720 960
WIRE 384 976 384 960
WIRE 400 976 384 976
WIRE 720 976 720 960
WIRE 320 1008 304 1008
WIRE 400 1008 320 1008
WIRE 512 1040 512 992
WIRE 544 1040 512 1040
WIRE 720 1088 720 1056
FLAG -192 448 0
FLAG -192 304 Vs
FLAG 176 448 0
FLAG 176 224 Vs
FLAG 112 336 e1
FLAG 240 336 e2
FLAG 608 928 Vdif
FLAG 320 928 0
FLAG 320 1088 0
FLAG 304 848 e1
FLAG 304 1008 e2
FLAG 720 1088 0
FLAG 992 944 ref
FLAG 608 -32 0
FLAG 624 -128 +15V
FLAG 624 64 -15V
FLAG 432 832 +15V
FLAG 432 1024 -15V
FLAG 880 912 +15V
FLAG 880 976 -15V
FLAG 720 832 +15V
FLAG 1040 320 +15V
FLAG 1040 384 -15V
FLAG 1360 480 0
FLAG 1440 304 +15V
FLAG 1440 368 -15V
FLAG 928 368 Vdif
FLAG 1536 336 Vout
FLAG 544 1040 ref
SYMBOL voltage -192 320 R0
WINDOW 123 24 124 Left 2
WINDOW 39 0 0 Left 0
SYMATTR InstName V1
SYMATTR Value SINE(0 3.3 10k)
SYMBOL OpAmps\\AD8421 432 928 R0
SYMATTR InstName U1
SYMBOL res 368 864 R0
SYMATTR InstName R3
SYMATTR Value 40
SYMBOL res 304 832 R0
WINDOW 0 -41 45 Left 2
WINDOW 3 -79 76 Left 2
SYMATTR InstName R1
SYMATTR Value {Rgnd}
SYMBOL res 304 992 R0
SYMATTR InstName R2
SYMATTR Value {Rgnd}
SYMBOL cap 112 352 R0
WINDOW 0 -36 30 Left 2
WINDOW 3 -55 54 Left 2
SYMATTR InstName C1
SYMATTR Value 440f
SYMBOL res 704 848 R0
SYMATTR InstName R4
SYMATTR Value {Rup}
SYMBOL res 704 960 R0
SYMATTR InstName R5
SYMATTR Value {Rdown}
SYMBOL OpAmps\\OP1177 880 880 R0
SYMATTR InstName U2
SYMBOL voltage 624 -144 R0
WINDOW 123 0 0 Left 0
WINDOW 39 0 0 Left 0
SYMATTR InstName V4
SYMATTR Value 15
SYMBOL voltage 624 -32 R0
WINDOW 123 0 0 Left 0
WINDOW 39 0 0 Left 0
SYMATTR InstName V5
SYMATTR Value 15
SYMBOL OpAmps\\OP1177 1040 288 R0
SYMATTR InstName U3
SYMBOL cap 1344 384 R0
WINDOW 3 24 56 Invisible 2
SYMATTR Value {Cp}
SYMATTR InstName Cp
SYMBOL schottky 1168 368 R270
WINDOW 0 32 32 VTop 2
WINDOW 3 0 32 VBottom 2
SYMATTR InstName D1
SYMATTR Value BAT54
SYMATTR Description Diode
SYMATTR Type diode
SYMBOL OpAmps\\OP1177 1440 272 R0
SYMATTR InstName U4
SYMBOL res 1424 160 R90
WINDOW 0 56 62 VBottom 2
WINDOW 3 32 56 Invisible 2
SYMATTR InstName Rp
SYMATTR Value {Rp}
SYMBOL schottky 1264 368 R270
WINDOW 0 32 32 VTop 2
WINDOW 3 0 32 VBottom 2
SYMATTR InstName D2
SYMATTR Value BAT54
SYMATTR Description Diode
SYMATTR Type diode
SYMBOL cap 112 256 R0
WINDOW 0 -38 10 Left 2
WINDOW 3 -53 37 Left 2
SYMATTR InstName Cx
SYMATTR Value {Cx}
SYMBOL cap 208 352 R0
WINDOW 0 43 29 Left 2
WINDOW 3 42 55 Left 2
SYMATTR InstName C3
SYMATTR Value 440f
SYMBOL cap 208 256 R0
WINDOW 0 37 5 Left 2
WINDOW 3 39 30 Left 2
SYMATTR InstName C2
SYMATTR Value 440f
TEXT 40 536 Left 2 !.step param Cx 428f 435f 1f
TEXT -224 560 Left 2 !.tran 0 16m 15m startup
TEXT 96 696 Left 2 !.param Rgnd 22Meg
TEXT 1048 96 Left 2 !*.step temp list -10 50
TEXT 1088 592 Left 2 !*.ac dec 10 1 10meg
TEXT 1144 -216 Left 2 !.param tensao_ref 9
TEXT 1136 -160 Left 2 !.param Rdown tensao_ref*1000
TEXT 1144 -80 Left 2 !.param Rup 15000-Rdown
TEXT 1416 32 Left 2 !.param Rp 1k
TEXT 1440 72 Left 2 !.param Cp 1u
TEXT 120 632 Left 2 !*.param Cx 0.105p
