Version 4
SHEET 1 2300 820
WIRE 624 -32 624 -48
WIRE 624 -32 608 -32
WIRE 624 -16 624 -32
WIRE 1328 176 1248 176
WIRE 1504 176 1408 176
WIRE 1360 224 960 224
WIRE 176 240 176 224
WIRE 176 240 128 240
WIRE 224 240 176 240
WIRE 480 240 464 240
WIRE 560 240 480 240
WIRE 1504 240 1504 176
WIRE 1504 240 1392 240
WIRE 128 256 128 240
WIRE 224 256 224 240
WIRE 560 272 544 272
WIRE 768 320 736 320
WIRE 1392 320 1392 240
WIRE 1408 320 1392 320
WIRE -192 336 -192 304
WIRE 128 336 128 320
WIRE 128 336 112 336
WIRE 224 336 224 320
WIRE 240 336 224 336
WIRE 960 336 960 224
WIRE 1008 336 960 336
WIRE 1504 336 1504 240
WIRE 1504 336 1472 336
WIRE 1536 336 1504 336
WIRE 128 352 128 336
WIRE 224 352 224 336
WIRE 1168 352 1072 352
WIRE 1248 352 1248 176
WIRE 1248 352 1232 352
WIRE 1264 352 1248 352
WIRE 1360 352 1360 224
WIRE 1360 352 1328 352
WIRE 1408 352 1360 352
WIRE 544 368 544 352
WIRE 560 368 544 368
WIRE 1008 368 928 368
WIRE 1360 384 1360 352
WIRE 480 400 464 400
WIRE 560 400 480 400
WIRE 128 432 128 416
WIRE 176 432 128 432
WIRE 224 432 224 416
WIRE 224 432 176 432
WIRE 672 432 672 384
WIRE 704 432 672 432
WIRE -192 448 -192 416
WIRE 176 448 176 432
WIRE 1360 480 1360 448
WIRE 784 576 784 544
WIRE 1024 576 880 576
WIRE 880 640 880 576
WIRE 912 640 880 640
WIRE 1024 656 1024 576
WIRE 1024 656 976 656
WIRE 1056 656 1024 656
WIRE 784 672 784 656
WIRE 912 672 784 672
WIRE 784 688 784 672
WIRE 784 800 784 768
FLAG -192 448 0
FLAG -192 304 Vs
FLAG 176 448 0
FLAG 176 224 Vs
FLAG 112 336 e1
FLAG 240 336 e2
FLAG 768 320 Vdif
FLAG 480 320 0
FLAG 480 480 0
FLAG 464 240 e1
FLAG 464 400 e2
FLAG 784 800 0
FLAG 1056 656 ref
FLAG 608 -32 0
FLAG 624 -128 +15V
FLAG 624 64 -15V
FLAG 592 224 +15V
FLAG 592 416 -15V
FLAG 944 624 +15V
FLAG 944 688 -15V
FLAG 784 544 +15V
FLAG 1040 320 +15V
FLAG 1040 384 -15V
FLAG 1360 480 0
FLAG 1440 304 +15V
FLAG 1440 368 -15V
FLAG 928 368 Vdif
FLAG 1536 336 Vout
FLAG 704 432 ref
SYMBOL voltage -192 320 R0
WINDOW 123 24 124 Left 2
WINDOW 39 0 0 Left 0
SYMATTR Value2 AC 1
SYMATTR InstName V1
SYMATTR Value SINE(0 3.3 10k)
SYMBOL OpAmps\\AD8421 592 320 R0
SYMATTR InstName U1
SYMBOL res 528 256 R0
SYMATTR InstName R3
SYMATTR Value 4.5K
SYMBOL res 464 224 R0
WINDOW 0 -41 45 Left 2
WINDOW 3 -79 76 Left 2
SYMATTR InstName R1
SYMATTR Value {Rgnd}
SYMBOL res 464 384 R0
SYMATTR InstName R2
SYMATTR Value {Rgnd}
SYMBOL cap 112 352 R0
SYMATTR InstName C2
SYMATTR Value 0.22p
SYMBOL res 768 560 R0
SYMATTR InstName R4
SYMATTR Value {Rup}
SYMBOL res 768 672 R0
SYMATTR InstName R5
SYMATTR Value {Rdown}
SYMBOL OpAmps\\OP1177 944 592 R0
SYMATTR InstName U2
SYMBOL voltage 624 -144 R0
WINDOW 123 0 0 Left 0
WINDOW 39 0 0 Left 0
SYMATTR InstName V4
SYMATTR Value 15
SYMBOL voltage 624 -32 R0
WINDOW 123 0 0 Left 0
WINDOW 39 0 0 Left 0
SYMATTR InstName V5
SYMATTR Value 15
SYMBOL OpAmps\\OP1177 1040 288 R0
SYMATTR InstName U3
SYMBOL cap 1344 384 R0
WINDOW 3 24 56 Invisible 2
SYMATTR Value {Cp}
SYMATTR InstName Cp
SYMBOL schottky 1168 368 R270
WINDOW 0 32 32 VTop 2
WINDOW 3 0 32 VBottom 2
SYMATTR InstName D1
SYMATTR Value BAT54
SYMATTR Description Diode
SYMATTR Type diode
SYMBOL OpAmps\\OP1177 1440 272 R0
SYMATTR InstName U4
SYMBOL res 1424 160 R90
WINDOW 0 56 62 VBottom 2
WINDOW 3 32 56 Invisible 2
SYMATTR InstName Rp
SYMATTR Value {Rp}
SYMBOL schottky 1264 368 R270
WINDOW 0 32 32 VTop 2
WINDOW 3 0 32 VBottom 2
SYMATTR InstName D2
SYMATTR Value BAT54
SYMATTR Description Diode
SYMATTR Type diode
SYMBOL cap 112 256 R0
SYMATTR InstName C1
SYMATTR Value {Cx}
SYMBOL cap 208 352 R0
SYMATTR InstName C3
SYMATTR Value 0.22p
SYMBOL cap 208 256 R0
SYMATTR InstName C4
SYMATTR Value 0.22p
TEXT 40 536 Left 2 !.step param Cx 0.01p 0.2p 0.01p
TEXT -224 560 Left 2 !.tran 0 15.1m 15m startup
TEXT 96 696 Left 2 !.param Rgnd 50Meg
TEXT 1048 96 Left 2 !*.step temp list -10 50
TEXT 1144 -216 Left 2 !.param tensao_ref 0.3
TEXT 1136 -160 Left 2 !.param Rdown tensao_ref*1000
TEXT 1144 -80 Left 2 !.param Rup 15000-Rdown
TEXT 1416 32 Left 2 !.param Rp 1k
TEXT 1440 72 Left 2 !.param Cp 240n
TEXT 120 632 Left 2 !*.param Cx 0.105p
